CM Project 1 - Discone Antenna
CE
GW	1	9	0	0	0	0.3750	0	0	0.0050
GW	2	9	0	0	0	0.2652	0.2652	0	0.0050
GW	3	9	0	0	0	0	0.3750	0	0.0050
GW	4	9	0	0	0	-0.2652	0.2652	0	0.0050
GW	5	9	0	0	0	-0.3750	0	0	0.0050
GW	6	9	0	0	0	-0.2652	-0.2652	0	0.0050
GW	7	9	0	0	0	0	-0.3750	0	0.0050
GW	8	9	0	0	0	0.2652	-0.2652	0	0.0050
GW	9	9	0	0	-0.0750	0.2250	0	-0.4647	0.0050
GW	10	9	0	0	-0.0750	0.1591	0.1591	-0.4647	0.0050
GW	11	9	0	0	-0.0750	0	0.2250	-0.4647	0.0050
GW	12	9	0	0	-0.0750	-0.1591	0.1591	-0.4647	0.0050
GW	13	9	0	0	-0.0750	-0.2250	0	-0.4647	0.0050
GW	14	9	0	0	-0.0750	-0.1591	-0.1591	-0.4647	0.0050
GW	15	9	0	0	-0.0750	0	-0.2250	-0.4647	0.0050
GW	16	9	0	0	-0.0750	0.1591	-0.1591	-0.4647	0.0050
GW	17	1	0	0	0	0	0	-0.0750	0.0050
GE	0
GN	-1
EK
EX	0	17	1	0	1	0	0
FR	0	0	0	0	800	0
EN
