CM Project 1 - Flat Discone Antenna
CE
GW	1	7	0	0	0	0.3750	0	0	0.0050
GW	2	7	0	0	0	-0.3750	0	0	0.0050
GW	3	7	0	0	-0.0750	-0.2250	0	-0.4647	0.0050
GW	4	7	0	0	-0.0750	-0.1644	0	-0.4939	0.0050
GW	5	7	0	0	-0.0750	-0.1001	0	-0.5137	0.0050
GW	6	7	0	0	-0.0750	-0.0336	0	-0.5237	0.0050
GW	7	7	0	0	-0.0750	0.0336	0	-0.5237	0.0050
GW	8	7	0	0	-0.0750	0.1001	0	-0.5137	0.0050
GW	9	7	0	0	-0.0750	0.1644	0	-0.4939	0.0050
GW	10	7	0	0	-0.0750	0.2250	0	-0.4647	0.0050
GW	11	1	0	0	0	0	0	-0.0750	0.0050
GE	0
GN	-1
EK
EX	0	11	1	0	1	0	0
FR	0	0	0	0	800	0
EN
