CM Project 2 - Helical antenna with ground plane
CM Plane: Start angle A1 = 0, Stop angle A2 = 360
CM Radial sections = 8, Circular sections = 3
CM Helix: Length L in mtr. = 0.36
CM Radius R1 in cm. = 1.91, Radius R2 in cm. = 1.91
CM Number of turns = 12, Segments per turn = 16
CE
GW	1	3	0	0	0	.02	0	0	.0012
GW	2	3	.02	0	0	.04	0	0	.0012
GW	3	3	.04	0	0	.06	0	0	.0012
GW	4	3	0	0	0	.014142	.014142	0	.0012
GW	5	3	.014142	.014142	0	.028284	.028284	0	.0012
GW	6	3	.028284	.028284	0	.042426	.042426	0	.0012
GW	7	3	0	0	0	0	.02	0	.0012
GW	8	3	0	.02	0	0	.04	0	.0012
GW	9	3	0	.04	0	0	.06	0	.0012
GW	10	3	0	0	0	-.014142	.014142	0	.0012
GW	11	3	-.014142	.014142	0	-.028284	.028284	0	.0012
GW	12	3	-.028284	.028284	0	-.042426	.042426	0	.0012
GW	13	3	0	0	0	-.02	0	0	.0012
GW	14	3	-.02	0	0	-.04	0	0	.0012
GW	15	3	-.04	0	0	-.06	0	0	.0012
GW	16	3	0	0	0	-.014142	-.014142	0	.0012
GW	17	3	-.014142	-.014142	0	-.028284	-.028284	0	.0012
GW	18	3	-.028284	-.028284	0	-.042426	-.042426	0	.0012
GW	19	3	0	0	0	0	-.02	0	.0012
GW	20	3	0	-.02	0	0	-.04	0	.0012
GW	21	3	0	-.04	0	0	-.06	0	.0012
GW	22	3	0	0	0	.014142	-.014142	0	.0012
GW	23	3	.014142	-.014142	0	.028284	-.028284	0	.0012
GW	24	3	.028284	-.028284	0	.042426	-.042426	0	.0012
GW	25	3	.02	0	0	.014142	.014142	0	.0012
GW	26	3	.014142	.014142	0	0	.02	0	.0012
GW	27	3	0	.02	0	-.014142	.014142	0	.0012
GW	28	3	-.014142	.014142	0	-.02	0	0	.0012
GW	29	3	-.02	0	0	-.014142	-.014142	0	.0012
GW	30	3	-.014142	-.014142	0	0	-.02	0	.0012
GW	31	3	0	-.02	0	.014142	-.014142	0	.0012
GW	32	3	.014142	-.014142	0	.02	0	0	.0012
GW	33	7	.04	0	0	.028284	.028284	0	.0012
GW	34	7	.028284	.028284	0	0	.04	0	.0012
GW	35	7	0	.04	0	-.028284	.028284	0	.0012
GW	36	7	-.028284	.028284	0	-.04	0	0	.0012
GW	37	7	-.04	0	0	-.028284	-.028284	0	.0012
GW	38	7	-.028284	-.028284	0	0	-.04	0	.0012
GW	39	7	0	-.04	0	.028284	-.028284	0	.0012
GW	40	7	.028284	-.028284	0	.04	0	0	.0012
GW	41	7	.06	0	0	.042426	.042426	0	.0012
GW	42	7	.042426	.042426	0	0	.06	0	.0012
GW	43	7	0	.06	0	-.042426	.042426	0	.0012
GW	44	7	-.042426	.042426	0	-.06	0	0	.0012
GW	45	7	-.06	0	0	-.042426	-.042426	0	.0012
GW	46	7	-.042426	-.042426	0	0	-.06	0	.0012
GW	47	7	0	-.06	0	.042426	-.042426	0	.0012
GW	48	7	.042426	-.042426	0	.06	0	0	.0012
GW	49	1	0	0	.006	.0191	0	.006	.0012
GW	50	1	.0191	0	.006	.017646	.007309	.007875	.0012
GW	51	1	.017646	.007309	.007875	.013506	.013506	.00975	.0012
GW	52	1	.013506	.013506	.00975	.007309	.017646	.011625	.0012
GW	53	1	.007309	.017646	.011625	0	.0191	.0135	.0012
GW	54	1	0	.0191	.0135	-.007309	.017646	.015375	.0012
GW	55	1	-.007309	.017646	.015375	-.013506	.013506	.01725	.0012
GW	56	1	-.013506	.013506	.01725	-.017646	.007309	.019125	.0012
GW	57	1	-.017646	.007309	.019125	-.0191	0	.021	.0012
GW	58	1	-.0191	0	.021	-.017646	-.007309	.022875	.0012
GW	59	1	-.017646	-.007309	.022875	-.013506	-.013506	.02475	.0012
GW	60	1	-.013506	-.013506	.02475	-.007309	-.017646	.026625	.0012
GW	61	1	-.007309	-.017646	.026625	0	-.0191	.0285	.0012
GW	62	1	0	-.0191	.0285	.007309	-.017646	.030375	.0012
GW	63	1	.007309	-.017646	.030375	.013506	-.013506	.03225	.0012
GW	64	1	.013506	-.013506	.03225	.017646	-.007309	.034125	.0012
GW	65	1	.017646	-.007309	.034125	.0191	0	.036	.0012
GW	66	1	.0191	0	.036	.017646	.007309	.037875	.0012
GW	67	1	.017646	.007309	.037875	.013506	.013506	.03975	.0012
GW	68	1	.013506	.013506	.03975	.007309	.017646	.041625	.0012
GW	69	1	.007309	.017646	.041625	0	.0191	.0435	.0012
GW	70	1	0	.0191	.0435	-.007309	.017646	.045375	.0012
GW	71	1	-.007309	.017646	.045375	-.013506	.013506	.04725	.0012
GW	72	1	-.013506	.013506	.04725	-.017646	.007309	.049125	.0012
GW	73	1	-.017646	.007309	.049125	-.0191	0	.051	.0012
GW	74	1	-.0191	0	.051	-.017646	-.007309	.052875	.0012
GW	75	1	-.017646	-.007309	.052875	-.013506	-.013506	.05475	.0012
GW	76	1	-.013506	-.013506	.05475	-.007309	-.017646	.056625	.0012
GW	77	1	-.007309	-.017646	.056625	0	-.0191	.0585	.0012
GW	78	1	0	-.0191	.0585	.007309	-.017646	.060375	.0012
GW	79	1	.007309	-.017646	.060375	.013506	-.013506	.06225	.0012
GW	80	1	.013506	-.013506	.06225	.017646	-.007309	.064125	.0012
GW	81	1	.017646	-.007309	.064125	.0191	0	.066	.0012
GW	82	1	.0191	0	.066	.017646	.007309	.067875	.0012
GW	83	1	.017646	.007309	.067875	.013506	.013506	.06975	.0012
GW	84	1	.013506	.013506	.06975	.007309	.017646	.071625	.0012
GW	85	1	.007309	.017646	.071625	0	.0191	.0735	.0012
GW	86	1	0	.0191	.0735	-.007309	.017646	.075375	.0012
GW	87	1	-.007309	.017646	.075375	-.013506	.013506	.07725	.0012
GW	88	1	-.013506	.013506	.07725	-.017646	.007309	.079125	.0012
GW	89	1	-.017646	.007309	.079125	-.0191	0	.081	.0012
GW	90	1	-.0191	0	.081	-.017646	-.007309	.082875	.0012
GW	91	1	-.017646	-.007309	.082875	-.013506	-.013506	.08475	.0012
GW	92	1	-.013506	-.013506	.08475	-.007309	-.017646	.086625	.0012
GW	93	1	-.007309	-.017646	.086625	0	-.0191	.0885	.0012
GW	94	1	0	-.0191	.0885	.007309	-.017646	.090375	.0012
GW	95	1	.007309	-.017646	.090375	.013506	-.013506	.09225	.0012
GW	96	1	.013506	-.013506	.09225	.017646	-.007309	.094125	.0012
GW	97	1	.017646	-.007309	.094125	.0191	0	.096	.0012
GW	98	1	.0191	0	.096	.017646	.007309	.097875	.0012
GW	99	1	.017646	.007309	.097875	.013506	.013506	.09975	.0012
GW	100	1	.013506	.013506	.09975	.007309	.017646	.101625	.0012
GW	101	1	.007309	.017646	.101625	0	.0191	.1035	.0012
GW	102	1	0	.0191	.1035	-.007309	.017646	.105375	.0012
GW	103	1	-.007309	.017646	.105375	-.013506	.013506	.10725	.0012
GW	104	1	-.013506	.013506	.10725	-.017646	.007309	.109125	.0012
GW	105	1	-.017646	.007309	.109125	-.0191	0	.111	.0012
GW	106	1	-.0191	0	.111	-.017646	-.007309	.112875	.0012
GW	107	1	-.017646	-.007309	.112875	-.013506	-.013506	.11475	.0012
GW	108	1	-.013506	-.013506	.11475	-.007309	-.017646	.116625	.0012
GW	109	1	-.007309	-.017646	.116625	0	-.0191	.1185	.0012
GW	110	1	0	-.0191	.1185	.007309	-.017646	.120375	.0012
GW	111	1	.007309	-.017646	.120375	.013506	-.013506	.12225	.0012
GW	112	1	.013506	-.013506	.12225	.017646	-.007309	.124125	.0012
GW	113	1	.017646	-.007309	.124125	.0191	0	.126	.0012
GW	114	1	.0191	0	.126	.017646	.007309	.127875	.0012
GW	115	1	.017646	.007309	.127875	.013506	.013506	.12975	.0012
GW	116	1	.013506	.013506	.12975	.007309	.017646	.131625	.0012
GW	117	1	.007309	.017646	.131625	0	.0191	.1335	.0012
GW	118	1	0	.0191	.1335	-.007309	.017646	.135375	.0012
GW	119	1	-.007309	.017646	.135375	-.013506	.013506	.13725	.0012
GW	120	1	-.013506	.013506	.13725	-.017646	.007309	.139125	.0012
GW	121	1	-.017646	.007309	.139125	-.0191	0	.141	.0012
GW	122	1	-.0191	0	.141	-.017646	-.007309	.142875	.0012
GW	123	1	-.017646	-.007309	.142875	-.013506	-.013506	.14475	.0012
GW	124	1	-.013506	-.013506	.14475	-.007309	-.017646	.146625	.0012
GW	125	1	-.007309	-.017646	.146625	0	-.0191	.1485	.0012
GW	126	1	0	-.0191	.1485	.007309	-.017646	.150375	.0012
GW	127	1	.007309	-.017646	.150375	.013506	-.013506	.15225	.0012
GW	128	1	.013506	-.013506	.15225	.017646	-.007309	.154125	.0012
GW	129	1	.017646	-.007309	.154125	.0191	0	.156	.0012
GW	130	1	.0191	0	.156	.017646	.007309	.157875	.0012
GW	131	1	.017646	.007309	.157875	.013506	.013506	.15975	.0012
GW	132	1	.013506	.013506	.15975	.007309	.017646	.161625	.0012
GW	133	1	.007309	.017646	.161625	0	.0191	.1635	.0012
GW	134	1	0	.0191	.1635	-.007309	.017646	.165375	.0012
GW	135	1	-.007309	.017646	.165375	-.013506	.013506	.16725	.0012
GW	136	1	-.013506	.013506	.16725	-.017646	.007309	.169125	.0012
GW	137	1	-.017646	.007309	.169125	-.0191	0	.171	.0012
GW	138	1	-.0191	0	.171	-.017646	-.007309	.172875	.0012
GW	139	1	-.017646	-.007309	.172875	-.013506	-.013506	.17475	.0012
GW	140	1	-.013506	-.013506	.17475	-.007309	-.017646	.176625	.0012
GW	141	1	-.007309	-.017646	.176625	0	-.0191	.1785	.0012
GW	142	1	0	-.0191	.1785	.007309	-.017646	.180375	.0012
GW	143	1	.007309	-.017646	.180375	.013506	-.013506	.18225	.0012
GW	144	1	.013506	-.013506	.18225	.017646	-.007309	.184125	.0012
GW	145	1	.017646	-.007309	.184125	.0191	0	.186	.0012
GW	146	1	.0191	0	.186	.017646	.007309	.187875	.0012
GW	147	1	.017646	.007309	.187875	.013506	.013506	.18975	.0012
GW	148	1	.013506	.013506	.18975	.007309	.017646	.191625	.0012
GW	149	1	.007309	.017646	.191625	0	.0191	.1935	.0012
GW	150	1	0	.0191	.1935	-.007309	.017646	.195375	.0012
GW	151	1	-.007309	.017646	.195375	-.013506	.013506	.19725	.0012
GW	152	1	-.013506	.013506	.19725	-.017646	.007309	.199125	.0012
GW	153	1	-.017646	.007309	.199125	-.0191	0	.201	.0012
GW	154	1	-.0191	0	.201	-.017646	-.007309	.202875	.0012
GW	155	1	-.017646	-.007309	.202875	-.013506	-.013506	.20475	.0012
GW	156	1	-.013506	-.013506	.20475	-.007309	-.017646	.206625	.0012
GW	157	1	-.007309	-.017646	.206625	0	-.0191	.2085	.0012
GW	158	1	0	-.0191	.2085	.007309	-.017646	.210375	.0012
GW	159	1	.007309	-.017646	.210375	.013506	-.013506	.21225	.0012
GW	160	1	.013506	-.013506	.21225	.017646	-.007309	.214125	.0012
GW	161	1	.017646	-.007309	.214125	.0191	0	.216	.0012
GW	162	1	.0191	0	.216	.017646	.007309	.217875	.0012
GW	163	1	.017646	.007309	.217875	.013506	.013506	.21975	.0012
GW	164	1	.013506	.013506	.21975	.007309	.017646	.221625	.0012
GW	165	1	.007309	.017646	.221625	0	.0191	.2235	.0012
GW	166	1	0	.0191	.2235	-.007309	.017646	.225375	.0012
GW	167	1	-.007309	.017646	.225375	-.013506	.013506	.22725	.0012
GW	168	1	-.013506	.013506	.22725	-.017646	.007309	.229125	.0012
GW	169	1	-.017646	.007309	.229125	-.0191	0	.231	.0012
GW	170	1	-.0191	0	.231	-.017646	-.007309	.232875	.0012
GW	171	1	-.017646	-.007309	.232875	-.013506	-.013506	.23475	.0012
GW	172	1	-.013506	-.013506	.23475	-.007309	-.017646	.236625	.0012
GW	173	1	-.007309	-.017646	.236625	0	-.0191	.2385	.0012
GW	174	1	0	-.0191	.2385	.007309	-.017646	.240375	.0012
GW	175	1	.007309	-.017646	.240375	.013506	-.013506	.24225	.0012
GW	176	1	.013506	-.013506	.24225	.017646	-.007309	.244125	.0012
GW	177	1	.017646	-.007309	.244125	.0191	0	.246	.0012
GW	178	1	.0191	0	.246	.017646	.007309	.247875	.0012
GW	179	1	.017646	.007309	.247875	.013506	.013506	.24975	.0012
GW	180	1	.013506	.013506	.24975	.007309	.017646	.251625	.0012
GW	181	1	.007309	.017646	.251625	0	.0191	.2535	.0012
GW	182	1	0	.0191	.2535	-.007309	.017646	.255375	.0012
GW	183	1	-.007309	.017646	.255375	-.013506	.013506	.25725	.0012
GW	184	1	-.013506	.013506	.25725	-.017646	.007309	.259125	.0012
GW	185	1	-.017646	.007309	.259125	-.0191	0	.261	.0012
GW	186	1	-.0191	0	.261	-.017646	-.007309	.262875	.0012
GW	187	1	-.017646	-.007309	.262875	-.013506	-.013506	.26475	.0012
GW	188	1	-.013506	-.013506	.26475	-.007309	-.017646	.266625	.0012
GW	189	1	-.007309	-.017646	.266625	0	-.0191	.2685	.0012
GW	190	1	0	-.0191	.2685	.007309	-.017646	.270375	.0012
GW	191	1	.007309	-.017646	.270375	.013506	-.013506	.27225	.0012
GW	192	1	.013506	-.013506	.27225	.017646	-.007309	.274125	.0012
GW	193	1	.017646	-.007309	.274125	.0191	0	.276	.0012
GW	194	1	.0191	0	.276	.017646	.007309	.277875	.0012
GW	195	1	.017646	.007309	.277875	.013506	.013506	.27975	.0012
GW	196	1	.013506	.013506	.27975	.007309	.017646	.281625	.0012
GW	197	1	.007309	.017646	.281625	0	.0191	.2835	.0012
GW	198	1	0	.0191	.2835	-.007309	.017646	.285375	.0012
GW	199	1	-.007309	.017646	.285375	-.013506	.013506	.28725	.0012
GW	200	1	-.013506	.013506	.28725	-.017646	.007309	.289125	.0012
GW	201	1	-.017646	.007309	.289125	-.0191	0	.291	.0012
GW	202	1	-.0191	0	.291	-.017646	-.007309	.292875	.0012
GW	203	1	-.017646	-.007309	.292875	-.013506	-.013506	.29475	.0012
GW	204	1	-.013506	-.013506	.29475	-.007309	-.017646	.296625	.0012
GW	205	1	-.007309	-.017646	.296625	0	-.0191	.2985	.0012
GW	206	1	0	-.0191	.2985	.007309	-.017646	.300375	.0012
GW	207	1	.007309	-.017646	.300375	.013506	-.013506	.30225	.0012
GW	208	1	.013506	-.013506	.30225	.017646	-.007309	.304125	.0012
GW	209	1	.017646	-.007309	.304125	.0191	0	.306	.0012
GW	210	1	.0191	0	.306	.017646	.007309	.307875	.0012
GW	211	1	.017646	.007309	.307875	.013506	.013506	.30975	.0012
GW	212	1	.013506	.013506	.30975	.007309	.017646	.311625	.0012
GW	213	1	.007309	.017646	.311625	0	.0191	.3135	.0012
GW	214	1	0	.0191	.3135	-.007309	.017646	.315375	.0012
GW	215	1	-.007309	.017646	.315375	-.013506	.013506	.31725	.0012
GW	216	1	-.013506	.013506	.31725	-.017646	.007309	.319125	.0012
GW	217	1	-.017646	.007309	.319125	-.0191	0	.321	.0012
GW	218	1	-.0191	0	.321	-.017646	-.007309	.322875	.0012
GW	219	1	-.017646	-.007309	.322875	-.013506	-.013506	.32475	.0012
GW	220	1	-.013506	-.013506	.32475	-.007309	-.017646	.326625	.0012
GW	221	1	-.007309	-.017646	.326625	0	-.0191	.3285	.0012
GW	222	1	0	-.0191	.3285	.007309	-.017646	.330375	.0012
GW	223	1	.007309	-.017646	.330375	.013506	-.013506	.33225	.0012
GW	224	1	.013506	-.013506	.33225	.017646	-.007309	.334125	.0012
GW	225	1	.017646	-.007309	.334125	.0191	0	.336	.0012
GW	226	1	.0191	0	.336	.017646	.007309	.337875	.0012
GW	227	1	.017646	.007309	.337875	.013506	.013506	.33975	.0012
GW	228	1	.013506	.013506	.33975	.007309	.017646	.341625	.0012
GW	229	1	.007309	.017646	.341625	0	.0191	.3435	.0012
GW	230	1	0	.0191	.3435	-.007309	.017646	.345375	.0012
GW	231	1	-.007309	.017646	.345375	-.013506	.013506	.34725	.0012
GW	232	1	-.013506	.013506	.34725	-.017646	.007309	.349125	.0012
GW	233	1	-.017646	.007309	.349125	-.0191	0	.351	.0012
GW	234	1	-.0191	0	.351	-.017646	-.007309	.352875	.0012
GW	235	1	-.017646	-.007309	.352875	-.013506	-.013506	.35475	.0012
GW	236	1	-.013506	-.013506	.35475	-.007309	-.017646	.356625	.0012
GW	237	1	-.007309	-.017646	.356625	0	-.0191	.3585	.0012
GW	238	1	0	-.0191	.3585	.007309	-.017646	.360375	.0012
GW	239	1	.007309	-.017646	.360375	.013506	-.013506	.36225	.0012
GW	240	1	.013506	-.013506	.36225	.017646	-.007309	.364125	.0012
GW	241	1	.017646	-.007309	.364125	.0191	0	.366	.0012
GW	242	1	.0191	0	.366	0	0	.366	.0012
GW	243	1	0	0	0	0	0	0.006	0.0012
GE	0
GN	-1
EK
EX	0	243	1	0	1	0	0
FR	0	0	0	0	7500	0
EN
